4
R0100 1 0 1
R0200 2 0 2
R0301 3 1 1
F0004 0 4 4 1 2
H0402 4 2 3 2 10
V0300 3 0 SIN 5 5 1 0.5 0.5 90 2
.TRAN 3 2E-2 TETA 0.55 1
