3
H0100 1 0 2 3 1
D0300 3 0 1e-9 43.429445e-3
V0200 2 0 PULSE -5 5 0 0.5 0.5 0 1 6
.TRAN 10 10E-4 TETA 1 1
